.model MbreakN-X NMOS Vto = 1V Kp = 50u 
*$
